@<TRIPOS>MOLECULE
*****
 4 3 0 0 0
SMALL
GASTEIGER

@<TRIPOS>ATOM
      1 C           0.0000    0.0000    0.0000 C.3     1  UNL1        0.0000
      2 C           0.0000    0.0000    0.0000 C.3     1  UNL1        0.0000
      3 C           0.0000    0.0000    0.0000 C.3     1  UNL1        0.0000
      4 C           0.0000    0.0000    0.0000 C.3     1  UNL1        0.0000
@<TRIPOS>BOND
     1     1     2    1
     2     2     3    1
     3     3     4    1
