@<TRIPOS>MOLECULE
*****
 43 43 0 0 0
SMALL
GASTEIGER

@<TRIPOS>ATOM
      1 C           8.6957   -2.0957   -1.6020 C.3     1  UNL1       -0.0650
      2 C           8.8838   -2.4710   -0.1411 C.3     1  UNL1       -0.0515
      3 C           9.0109   -1.1039    0.5110 C.3     1  UNL1       -0.0215
      4 C           9.8327   -1.2243    1.7840 C.3     1  UNL1       -0.0606
      5 C           9.6405   -0.0495   -0.3847 C.3     1  UNL1        0.0759
      6 N           9.1884    1.2844    0.0361 N.3     1  UNL1       -0.3207
      7 C           9.2237   -0.2945   -1.8258 C.2     1  UNL1        0.2339
      8 O           8.5837    0.5997   -2.4629 O.2     1  UNL1       -0.2855
      9 C           9.5723   -1.6090   -2.5048 C.2     1  UNL1        0.2817
     10 O          10.2123   -2.5032   -1.8677 O.2     1  UNL1       -0.2670
     11 N           9.1692   -1.8459   -3.8985 N.am    1  UNL1       -0.2978
     12 C           8.5608   -0.7560   -4.6750 C.3     1  UNL1        0.0969
     13 C           7.0664   -0.7115   -4.4008 C.3     1  UNL1       -0.0379
     14 C           8.7970   -0.9967   -6.1571 C.ar    1  UNL1        0.2166
     15 N          10.0969   -1.0770   -6.6511 N.ar    1  UNL1       -0.2048
     16 CA         10.3134   -1.2976   -8.0092 C.ar    1  UNL1        0.1884
     17 C           9.1311   -1.4507   -8.9522 C.2     1  UNL1        0.3588
     18 O           9.3518   -1.6756  -10.3368 O.3     1  UNL1       -0.4760
     19 OXT         7.9451   -1.3775   -8.5015 O.2     1  UNL1       -0.2433
     20 C          11.6574   -1.3805   -8.5200 C.ar    1  UNL1        0.1365
     21 C          11.8936   -1.6212  -10.0021 C.3     1  UNL1       -0.0039
     22 O           7.7506   -1.1323   -6.9918 O.2     1  UNL1       -0.4421
     23 H           8.5910   -2.9848   -2.1880 H       1  UNL1        0.0230
     24 H           9.5473   -1.5434   -1.9409 H       1  UNL1        0.0230
     25 H           7.8166   -1.4947   -1.7056 H       1  UNL1        0.0230
     26 H           9.7687   -3.0554    0.0012 H       1  UNL1        0.0266
     27 H           8.0946   -3.0727    0.2590 H       1  UNL1        0.0266
     28 H           8.0132   -0.7775    0.7182 H       1  UNL1        0.0317
     29 H          10.8218   -1.5517    1.5404 H       1  UNL1        0.0233
     30 H           9.3732   -1.9344    2.4394 H       1  UNL1        0.0233
     31 H           9.8817   -0.2714    2.2684 H       1  UNL1        0.0233
     32 H          10.7062   -0.1059   -0.3072 H       1  UNL1        0.0545
     33 H           8.1725    1.3381   -0.0378 H       1  UNL1        0.1189
     34 H           9.6109    1.9919   -0.5650 H       1  UNL1        0.1189
     35 H           9.3059   -2.7299   -4.3097 H       1  UNL1        0.1499
     36 H           9.0036    0.1754   -4.3899 H       1  UNL1        0.0593
     37 H           6.6236   -1.6429   -4.6859 H       1  UNL1        0.0252
     38 H           6.6235    0.0818   -4.9661 H       1  UNL1        0.0252
     39 H           6.9001   -0.5420   -3.3575 H       1  UNL1        0.0252
     40 H          10.2263   -1.7296  -10.6691 H       1  UNL1        0.2955
     41 H          12.9456   -1.6526  -10.1951 H       1  UNL1        0.0308
     42 H          11.4508   -0.8280  -10.5673 H       1  UNL1        0.0308
     43 H          11.4508   -2.5527  -10.2872 H       1  UNL1        0.0308
@<TRIPOS>BOND
     1     1     2    1
     2     5     7    1
     3     7     8    2
     4     7     9    1
     5     9    10    2
     6     9    11   am
     7    12    14    1
     8    14    15   ar
     9    15    16   ar
    10    16    17    1
    11    17    18    1
    12    17    19    2
    13    16    20   ar
    14    20    21    1
    15    20    22   ar
    16    14    22   ar
    17     5     6    1
    18     5     3    1
    19     3     4    1
    20     3     2    1
    21    12    13    1
    22    12    11    1
    23     1    23    1
    24     1    24    1
    25     1    25    1
    26     2    26    1
    27     2    27    1
    28     3    28    1
    29     4    29    1
    30     4    30    1
    31     4    31    1
    32     5    32    1
    33     6    33    1
    34     6    34    1
    35    11    35    1
    36    12    36    1
    37    13    37    1
    38    13    38    1
    39    13    39    1
    40    18    40    1
    41    21    41    1
    42    21    42    1
    43    21    43    1
